**$ENCRYPTED_LIB
**$INTERFACE
* source LMG1210
*
*****************************************************************************
* (C) Copyright 2019 Texas Instruments Incorporated. All rights reserved.                                            
*****************************************************************************
** This model is designed as an aid for customers of Texas Instruments.                                             
** TI and its licensors and suppliers make no warranties, either expressed                                           
** or implied, with respect to this model, including the warranties of                                                    
** merchantability or fitness for a particular purpose. The model is                                                      
** provided solely on an "as is" basis. The entire risk as to its quality                                                    
** and performance is with the customer.                                                                                         
*****************************************************************************
*
* Released by: WEBENCH Design Center, Texas Instruments Inc.
* Part: LMG1210
* Date: 3/8/2019
* Model Type: Transient 
* Simulator: PSPICE
* Simulator Version: 16.2
* EVM Order Number: 
* EVM Users Guide: 
* Datasheet: SNOSD12 OCTOBER 2015 --REVISED JUNE 2016
* Model Version: Final 2.2
* Release to Web.
****************************************************************
* This model provides the following features
* PWM or independent mode, dead time programming. LDO,  
* propogation delay time, UVLO,
    ************
*$
.SUBCKT LMG1210 HB HO PWM_LI HS_0 HS_1 HS_2 HS_3 HS_DAP LS_DAP VIN LO DHL DLH  VCC VSS_0 VSS_1 EN_HI NC_0 NC_1 NC_2 BST
$CDNENCSTART
eee8c5c7a2bc4b01f045f303678664e7916da0bae22e8cb0bba041dd67c69ce448ea70148a9ac1670c8926c1ac5057c8ccfcd77bf87ca9dcc8a6880b9ec40ad1
d49621ec8e49fcf0dc1f5b10413b8dc7dbe86c1f70c2d0d35c78620980dad895ec3bbd50ccba185dcefba7cc35a5f871470fa9a71ef2387b9cf6c3a968bdba61
b0052325a1f7e54d09b5199b512d985cdbe86c1f70c2d0d35c78620980dad895ec3bbd50ccba185dcefba7cc35a5f871470fa9a71ef2387b9cf6c3a968bdba61
d1dc68d76e191c0556a3a21e51845e5edbe86c1f70c2d0d35c78620980dad895ec3bbd50ccba185dcefba7cc35a5f871470fa9a71ef2387b9cf6c3a968bdba61
04646857b2a37711e3475927d9d2f3dc021b009da233cb88f113edb7d8af5a52ca3915d10d0cd8df53e908a3e6b683cee98ee8ee774c93ac781bde68a57ca87c
0c16f7285e9c86f79991b0dcddd0dede021b009da233cb88f113edb7d8af5a52ca3915d10d0cd8df53e908a3e6b683cee98ee8ee774c93ac781bde68a57ca87c
32073ea72f8b4f5cea72349238f162f311f623a56e7ec735eafabbf3c3c8023b7a4211dd260ad3487da40a76f61bb2c23b38e18b5b4b0343f7be19278649234d
551e21db4b76fcc06ecfc1fee54a0b1e11f623a56e7ec735eafabbf3c3c8023b7a4211dd260ad3487da40a76f61bb2c23b38e18b5b4b0343f7be19278649234d
19d77b63167eef27c4abee5f6908798111f623a56e7ec735eafabbf3c3c8023b7a4211dd260ad3487da40a76f61bb2c23b38e18b5b4b0343f7be19278649234d
b2a845aee1c7338c8269e6352311057111f623a56e7ec735eafabbf3c3c8023b7a4211dd260ad3487da40a76f61bb2c23b38e18b5b4b0343f7be19278649234d
d8b9c9b020f7cb74d0797c2632da967f65b781e01913e8edc67352161bec7d8afb8349a856abd4bf742645b28afb7ecd69220319c701f2dfcb7fdccfca961fc3
1a15b13b8160f31594047569b63e2c5965b781e01913e8edc67352161bec7d8afb8349a856abd4bf742645b28afb7ecd69220319c701f2dfcb7fdccfca961fc3
 910133f7dbe25a14b338bcb491f1f660a665d0fac02ce03ecd1bb2323a8e192ba50ed51e3b7edf353cc5e1873c2966b031f2ea45f8adae5db04782e0c0925874
9cf3e9ed05a336972660b538d70ce3ae706b807646b80371e3e0db137b20d70ceff4d3d002151269c2dffcc32c3e0a4f69fad4a322c08c64bb47f94fb35c6291
0574bfb6d96f7b202e532c1fc189f233c67352161bec7d8afb8349a856abd4bf742645b28afb7ecd69220319c701f2df2c7169392df388b4d6d06f002b1a87c3
8447e7e9aa3631b3499c334705ffb7924b94e8b56a0431003c858dbd7e6e51205314e44f8dbca9aa5e907deffd12c5ffdd06c2baef735caed656dab8877def08
998fd920f4f159aa6824f5bcb04be3e675ba0c3b03da98f2c67352161bec7d8afb8349a856abd4bf742645b28afb7ecd69220319c701f2dfcb7fdccfca961fc3
910133f7dbe25a1434fa00660eee76c4706b807646b803717353cf24fe7f54a72821a87a2b85cc2b546fdcbbdf5753dd084c44e87d2cdfce39948b8788319ba9
58f9266cb134f077eeba9dba331faa80706b807646b803717353cf24fe7f54a72821a87a2b85cc2bfec8403d5c456a43ec9cb96020dadd6dcf3c8ecb92668734
68e728f9be743a6e3c991a04052eba44644126c9831a96bdacf0c2d44cd2fbbb5725d40be78263bb240f0ef25946a36b445ef5ee593dfcf5938b9ee780b3c3fd
b24d3cb64d4208479aa31d345909ead4706b807646b80371fe0a49fb92707593499c334705ffb792e98db8924700e568b727347f43209366b04782e0c0925874
c89502f13bcb4046ca2620fd8a1cfd4e0fa4ea595ab98ca0aada2182b3aa1d64499c334705ffb792983ef4a6b84e1718749d13634498f34b7a9de0503bc0a38f
d4b9d397eb51883e644126c9831a96bdacf0c2d44cd2fbbb5725d40be78263bb240f0ef25946a36b445ef5ee593dfcf5afcaacab39bf532c12789ccf7b7cd319
d8bbc7646f1d15a0eff4d3d00215126998e45f2d74d72233a392da7638621f7a858d53ce1ab860eff113edb7d8af5a52ca3915d10d0cd8df6bcaab5ddaa1ed25
9cf3e9ed05a3369712c203c7d33555c9706b807646b803710deb5f5c2c301c09ec9cb96020dadd6dfdae98213a261ff6547db92c610f9c1f243bdb7f9565d73c
e46602a6ceb397b183a6d34c7490229b11f623a56e7ec735eafabbf3c3c8023b7a4211dd260ad3487da40a76f61bb2c23b38e18b5b4b0343f7be19278649234d
8447e7e9aa3631b3c251570456f8a43fd29c0ab06ca0e337c58d97a2a864218502abcd4c7e2410e73267e49cc155bb17aad0cae5ebf3019ade77af42d658eef4
9cf3e9ed05a336972f54f95d49352f80706b807646b80371e524025cfd202c9c07afa5cbd98ae71512f947e710871a6c128b0b687c083aa734215be37b156763
7a801dd6ce945e03e73ae10688366d20dbe86c1f70c2d0d35c78620980dad895ec3bbd50ccba185dcefba7cc35a5f871470fa9a71ef2387b9cf6c3a968bdba61
8447e7e9aa3631b3006089ada42e0f5491a5ebddd501cff9c58d97a2a864218502abcd4c7e2410e73267e49cc155bb17aad0cae5ebf3019ade77af42d658eef4
c89502f13bcb4046ca2620fd8a1cfd4e2716e67bb37c7392aada2182b3aa1d64499c334705ffb792d5054abb45e07e50749d13634498f34b7a9de0503bc0a38f
d4b9d397eb51883e644126c9831a96bdacf0c2d44cd2fbbb5725d40be78263bb240f0ef25946a36b445ef5ee593dfcf5afcaacab39bf532c12789ccf7b7cd319
d8bbc7646f1d15a0eff4d3d0021512697773a7a09ba2fa102b2fb1ee150ee51b858d53ce1ab860eff113edb7d8af5a52ca3915d10d0cd8df6bcaab5ddaa1ed25
9cf3e9ed05a33697b820f47018c45ca9ad2973f005b97ffbec9cb96020dadd6d59fa7fd25f594b6fa10fddf9b8e6c2e1eff4d3d00215126901a355b1229c6b02
ad58dd9fe62683b1c67352161bec7d8afb8349a856abd4bf742645b28afb7ecd69220319c701f2df2c7169392df388b4b84fa09725c18a0be1311fe7f5a0ff3a
8447e7e9aa3631b3e0762e084e5a6a8c0c9227761db4fff6949bc780c73a347231df8fc3f022f7ceeff4d3d002151269d6cce8fc02daf82276c03a7ef54c51e0
c89502f13bcb4046b820f47018c45ca98f8b1765cf2e43df8a284fd1a2c2182ade288d901a9ee59c1f3d0135af4a739d3a79e1ef07b2540e85909c7723c7dc0e
c7a9b64f566d6d8849e4a07179a98162dbe86c1f70c2d0d35c78620980dad895ec3bbd50ccba185dcefba7cc35a5f871470fa9a71ef2387b9cf6c3a968bdba61
68a8aee1ac65298fa4ee94ef1881b5b051af04d3c1444e4b36389de9d0d5a3abd4d25ba896602a221489f10f26dca60f882712c6cfed3b96acdea4f0ae11a0f7
9cf3e9ed05a33697b820f47018c45ca987e660620700662a348a08313f0cb02607afa5cbd98ae715023fd8dd8700ebfcee6a724ec7532195d38aff4e12555a5d
8447e7e9aa3631b3e0762e084e5a6a8ca11e5ebf6f82ac750c546c430a4b7b5ad2bbd7e847d638e1e776e9b255bda08cbfd81d659a09e4b30c138f656e983247
31bbfa71d5efb6fe825b843a3aa9ddcda4ee94ef1881b5b051af04d3c1444e4b36389de9d0d5a3abd4d25ba896602a221489f10f26dca60f354b868d7e7e62eb
58f9266cb134f077b820f47018c45ca946b287ff22cd9bb6348a08313f0cb02607afa5cbd98ae715ddf051f69da0dd6445606d4e1e4cd5ecd9de4b16f63cb4fb
710f626c2faf14a6c67352161bec7d8afb8349a856abd4bf742645b28afb7ecd69220319c701f2df2c7169392df388b4b84fa09725c18a0be1311fe7f5a0ff3a
9cf3e9ed05a33697b820f47018c45ca95281b06a333d3503476e7adb94c78f02eff4d3d00215126939bedf029333a543032c5202303229a334215be37b156763
023fd8dd8700ebfca8bd3b72be7d5309dbe86c1f70c2d0d35c78620980dad895ec3bbd50ccba185dcefba7cc35a5f871470fa9a71ef2387b9cf6c3a968bdba61
539907bbce3accce75963efd3ee34e16b0320154828380204e26894942562954f47a15dc89514f6dad0b6fb86357180409f392a0688e506cc90ebc063f0303de
c89502f13bcb4046b820f47018c45ca946dad74974daf1278a284fd1a2c2182ade288d901a9ee59c79853a3f2d4873477d048f3dc121ea1a85909c7723c7dc0e
c7a9b64f566d6d88a1f5402e646d7b4ddbe86c1f70c2d0d35c78620980dad895ec3bbd50ccba185dcefba7cc35a5f871470fa9a71ef2387b9cf6c3a968bdba61
68a8aee1ac65298fa4ee94ef1881b5b051af04d3c1444e4b36389de9d0d5a3abd4d25ba896602a221489f10f26dca60f882712c6cfed3b96acdea4f0ae11a0f7
94138b2bfa8068dfb820f47018c45ca9837dbdd416b2af678a284fd1a2c2182ade288d901a9ee59c1c34633f8f4c55ebb20950cc8bf5778c5e87e36e831e06aa
64bcc0a497fc04bade4eecebb5d645b6eb9157d59baa1895a7875afc72457eb202b0056f3f646e028d92ac7c1641b6a9809bc717be451c33412ca97a07df297b
9cf3e9ed05a33697b820f47018c45ca9c9e8f45ead259ca5476e7adb94c78f02eff4d3d00215126939bedf029333a54358a898649254783034215be37b156763
023fd8dd8700ebfcf4bc08613c459585dbe86c1f70c2d0d35c78620980dad895ec3bbd50ccba185dcefba7cc35a5f871470fa9a71ef2387b9cf6c3a968bdba61
539907bbce3accce75963efd3ee34e16b0320154828380204e26894942562954f47a15dc89514f6dad0b6fb86357180409f392a0688e506cc90ebc063f0303de
9cf3e9ed05a33697b820f47018c45ca9ce59203310f1aeecec9cb96020dadd6d59fa7fd25f594b6fa10fddf9b8e6c2e1eff4d3d00215126946994da00e7f189e
9ec9cbc9e89db8a911f623a56e7ec735eafabbf3c3c8023b7a4211dd260ad3487da40a76f61bb2c23b38e18b5b4b03436b911d6af6bcb04e8c808178d5964ac3
8447e7e9aa3631b3e0762e084e5a6a8ca11e5ebf6f82ac75691e4871c714a3a831df8fc3f022f7ceeff4d3d002151269c145d5482569406c76c03a7ef54c51e0
910133f7dbe25a14b820f47018c45ca943b2e00be924f4aa8a284fd1a2c2182ade288d901a9ee59c0ac608545166debb0fba6325cfe4dcca12a621c3743e0c1d
9cf3e9ed05a33697b820f47018c45ca982d2442fe366db26476e7adb94c78f02eff4d3d00215126939bedf029333a5430ecdd5c9827af17db7d3bf6444a145ed
8447e7e9aa3631b3e0762e084e5a6a8ca11e5ebf6f82ac756d1ef27b2c9569cdd2bbd7e847d638e1e776e9b255bda08cbfd81d659a09e4b30c138f656e983247
31bbfa71d5efb6fe102372497787b35c11f623a56e7ec735eafabbf3c3c8023b7a4211dd260ad3487da40a76f61bb2c23b38e18b5b4b0343f7be19278649234d
9cf3e9ed05a33697b820f47018c45ca9c63259925b09ea5c476e7adb94c78f02eff4d3d00215126939bedf029333a54379ba1e58ed0ec81434215be37b156763
023fd8dd8700ebfc09562caab806a058dbe86c1f70c2d0d35c78620980dad895ec3bbd50ccba185dcefba7cc35a5f871470fa9a71ef2387b9cf6c3a968bdba61
539907bbce3accce75963efd3ee34e16b0320154828380204e26894942562954f47a15dc89514f6dad0b6fb86357180409f392a0688e506cc90ebc063f0303de
9cf3e9ed05a33697b820f47018c45ca903801892e2cb26fdc176abe69e5d5c9007afa5cbd98ae715ddf051f69da0dd640d428683fb8b8d3485909c7723c7dc0e
c7a9b64f566d6d88ec02239ead5208ef0fb68010fe61d9f6a1f835d0322deeb25c1c6b6568de674a52dca489d1f5766d8e13e84647d596ee9250a26338ae3d49
65fcde8e71d22433f97955afa189abfbde288d901a9ee59c81945c7e9a8153da0fb68010fe61d9f6a1f835d0322deeb25c1c6b6568de674a9a7eca0a9299a8a9
58f9266cb134f077b820f47018c45ca96bb02f7c3ba3e30e4105a1eca265480007afa5cbd98ae715ddf051f69da0dd6445606d4e1e4cd5ecd9de4b16f63cb4fb
710f626c2faf14a6c67352161bec7d8afb8349a856abd4bf742645b28afb7ecd69220319c701f2df2c7169392df388b4b84fa09725c18a0be1311fe7f5a0ff3a
9cf3e9ed05a33697b820f47018c45ca9be7f2d8e863baaf9476e7adb94c78f02eff4d3d00215126939bedf029333a54362c6132d4f1541a134215be37b156763
023fd8dd8700ebfcd1abe1d827896ce2dbe86c1f70c2d0d35c78620980dad895ec3bbd50ccba185dcefba7cc35a5f871470fa9a71ef2387b9cf6c3a968bdba61
539907bbce3accce75963efd3ee34e16b0320154828380204e26894942562954f47a15dc89514f6dad0b6fb86357180409f392a0688e506cc90ebc063f0303de
b24d3cb64d420847b820f47018c45ca9bca4b861dec76fd88a284fd1a2c2182ade288d901a9ee59c1c34633f8f4c55ebd01403fe08bbb62d243bdb7f9565d73c
a10cf078bc22341df7c9430b5ad61125dbe86c1f70c2d0d35c78620980dad895ec3bbd50ccba185dcefba7cc35a5f871470fa9a71ef2387b9cf6c3a968bdba61
d1b97ed4ba07e2e3dbe86c1f70c2d0d35c78620980dad895ec3bbd50ccba185dcefba7cc35a5f871470fa9a71ef2387b023dde8cc0650d615403206ed59de4f1
9cf3e9ed05a33697b820f47018c45ca99356391011da6580476e7adb94c78f02eff4d3d00215126939bedf029333a5433b029b0f8005af2034215be37b156763
74e6412fbb0cb1f9abcd30bb588397dade4eecebb5d645b6eb9157d59baa1895a7875afc72457eb202b0056f3f646e028d92ac7c1641b6a9dd25d8f03cc47e66
8447e7e9aa3631b3e0762e084e5a6a8ca11e5ebf6f82ac75720cad798f8b2bf6d2bbd7e847d638e1e776e9b255bda08cbfd81d659a09e4b30c138f656e983247
31bbfa71d5efb6fe102372497787b35c11f623a56e7ec735eafabbf3c3c8023b7a4211dd260ad3487da40a76f61bb2c23b38e18b5b4b0343f7be19278649234d
b24d3cb64d420847b820f47018c45ca98484a92b500b14db8a284fd1a2c2182ade288d901a9ee59c88913c7722ef6095a0f2edcc245812e4243bdb7f9565d73c
a10cf078bc22341df7c9430b5ad61125dbe86c1f70c2d0d35c78620980dad895ec3bbd50ccba185dcefba7cc35a5f871470fa9a71ef2387b9cf6c3a968bdba61
d1b97ed4ba07e2e3dbe86c1f70c2d0d35c78620980dad895ec3bbd50ccba185dcefba7cc35a5f871470fa9a71ef2387b023dde8cc0650d615403206ed59de4f1
9cf3e9ed05a33697b820f47018c45ca98e73b51ee5f47be2599bf13f0371d5b41cfccc23f777030cde288d901a9ee59cacd84c4caefc1a9040a7bccf11d1293c
60a188d940e604c16594e2ecfdcb7f1411f623a56e7ec735eafabbf3c3c8023b7a4211dd260ad3487da40a76f61bb2c23b38e18b5b4b0343f7be19278649234d
bbf0a766f49a242c2637e9cac2aa5ceafd49a287c76beca9cf3db11be0503885f113edb7d8af5a52ca3915d10d0cd8df53e908a3e6b683ce52babadae46b9d99
9cf3e9ed05a33697b820f47018c45ca9b727911d7e733d4d4105a1eca265480007afa5cbd98ae715023fd8dd8700ebfc39cd59a54ccff6e0d38aff4e12555a5d
8447e7e9aa3631b3e0762e084e5a6a8ca11e5ebf6f82ac752b8dcc082ea61f65d2bbd7e847d638e1e776e9b255bda08cbfd81d659a09e4b30c138f656e983247
31bbfa71d5efb6fe825b843a3aa9ddcda4ee94ef1881b5b051af04d3c1444e4b36389de9d0d5a3abd4d25ba896602a221489f10f26dca60f354b868d7e7e62eb
94138b2bfa8068dfb820f47018c45ca99309ef0216ba8a968a284fd1a2c2182ade288d901a9ee59c88913c7722ef60950b2af68e39cb44ba5e87e36e831e06aa
64bcc0a497fc04bade4eecebb5d645b6eb9157d59baa1895a7875afc72457eb202b0056f3f646e028d92ac7c1641b6a9809bc717be451c33412ca97a07df297b
9cf3e9ed05a33697b820f47018c45ca98be0597e9f59c638c176abe69e5d5c9007afa5cbd98ae715023fd8dd8700ebfc3f7960136125e6ffd38aff4e12555a5d
8447e7e9aa3631b3e0762e084e5a6a8ca11e5ebf6f82ac75c7b4a93ac500f6c031df8fc3f022f7ceeff4d3d0021512692dbbf487d9159da076c03a7ef54c51e0
c89502f13bcb4046ca2620fd8a1cfd4e9f50c449b546348caada2182b3aa1d64499c334705ffb7922211c2249752f56e749d13634498f34b75f9f0984fbd66ac
7d8a3fd0a85106e029f560eabb6822a85176a4dd57490186914ab86d0d4cb0e67245829f50cac69f981d954b3900061611f623a56e7ec73514fb85f9c0fe6ca2
58f9266cb134f0775f66fc15553c0f72706b807646b803717353cf24fe7f54a72821a87a2b85cc2b81994c9789a17fe9ec9cb96020dadd6dcf3c8ecb92668734
7f1f39502390a1c43c991a04052eba44644126c9831a96bdacf0c2d44cd2fbbb5725d40be78263bb240f0ef25946a36b445ef5ee593dfcf5938b9ee780b3c3fd
b24d3cb64d4208476b38cdfab5c067b1706b807646b80371fe0a49fb92707593499c334705ffb792b196867dbebc26f0b727347f43209366b04782e0c0925874
b24d3cb64d4208477eb3eb4550bb77d4706b807646b80371fe0a49fb92707593e2ba047449ce673f5d9670c0f13ee49d73c67d03b6e7c5649d6bedf9d0034ac8
58f9266cb134f0774bfd1153628503aa706b807646b803717353cf24fe7f54a7d4e49d28351d9f283a0af482c70b756c2e19ed9fa0e074caaa4c284d7115562c
9b12629dabd03ec7800e3302b1b6a924a4ee94ef1881b5b051af04d3c1444e4b36389de9d0d5a3abd4d25ba896602a221489f10f26dca60f354b868d7e7e62eb
0418cc75e3d7cf68710f626c2faf14a6c67352161bec7d8afb8349a856abd4bf742645b28afb7ecd69220319c701f2df2c7169392df388b4d6d06f002b1a87c3
58f9266cb134f077ddcd3543a7c3b823085bce7e468ff6ef473d56d88769b69bc251570456f8a43f9d7f48073f004b7f478a87bc5b8e6cf9d38aff4e12555a5d
9cf3e9ed05a3369718d82b2fcf19aa2407afa5cbd98ae71566d76bde72eb9b8b7353cf24fe7f54a7a3238cb22306d3287e268c8b5133de0534215be37b156763
07afa5cbd98ae7157c6a05e67fd634eede4eecebb5d645b6eb9157d59baa1895a7875afc72457eb202b0056f3f646e028d92ac7c1641b6a9dd25d8f03cc47e66
58f9266cb134f077831addf320df426ac88e63365c66d808316d9646a3af8debc8ad8a3092d4440fcbd4d2e3c8a01b9c1d9fd6c3d9ba6ef5d9de4b16f63cb4fb
710f626c2faf14a6c67352161bec7d8afb8349a856abd4bf742645b28afb7ecd69220319c701f2df2c7169392df388b4b84fa09725c18a0be1311fe7f5a0ff3a
58f9266cb134f077c04f6247a58d4ba091672229df8f91b8cdb10b4e2c4526e7c18cf6cf47be8560b2b0bff6184c43bb24fdfd9bb2e10b07c90ebc063f0303de
58f9266cb134f077eb0ea8a0bb3ad873449a07fbb9c81b5a28c3c5e08aadda0ec45e579888398443df7434ff6eb953c923b782b3d6a37df1b04782e0c0925874
9cf3e9ed05a33697c0aba354c4ec57c0706b807646b8037175f9857985be268607afa5cbd98ae715cb818e0321ecefaf7353cf24fe7f54a765e0ad4366b48116
3abd89d9ae1b65054e94923370ae3953dbe86c1f70c2d0d35c78620980dad895ec3bbd50ccba185dcefba7cc35a5f871470fa9a71ef2387b9cf6c3a968bdba61
28170c93705ebae5998741d6e1cd705e0fb68010fe61d9f6a1f835d0322deeb25c1c6b6568de674a52dca489d1f5766d8e13e84647d596ee9250a26338ae3d49
58f9266cb134f077d2e309a60a51b7cb91672229df8f91b88ca7ae3019bc82bfc18cf6cf47be8560b2b0bff6184c43bb24fdfd9bb2e10b07c90ebc063f0303de
58f9266cb134f077818bbd8fabbd2847085bce7e468ff6efdd40a6175b17b9eac251570456f8a43f9d7f48073f004b7f478a87bc5b8e6cf9d38aff4e12555a5d
58f9266cb134f077bbbc1b43140af331a7ade781b81428b386196d6b960acad3c45e579888398443213c821dde5f6a7e042f0c0c78bb0deb12a621c3743e0c1d
58f9266cb134f0770c424cafb0e5c14ec88e63365c66d8081b36a3ee095fe1e1d8ec5d705a2dd8f607afa5cbd98ae715cb818e0321ecefaf0ad2203f183b7057
62d766f77596a54b11f623a56e7ec735eafabbf3c3c8023b7a4211dd260ad3487da40a76f61bb2c23b38e18b5b4b03436b911d6af6bcb04e8c808178d5964ac3
9cf3e9ed05a33697223e42fd5af7317cb585b96681e0ca9bcd1bb2323a8e192be78d4e9d7792537042d51250774204c07715dd6974e390829d87f73edfe878ba
af1d5ea7c722f8c8f113edb7d8af5a52ca3915d10d0cd8df53e908a3e6b683cee98ee8ee774c93acfc0c2c7b924066d5656ba606faa386d6d2cb01908e55af08
ce2630e8f72a0e97a7f7cf3f592f95ccb0320154828380208eab8894702469bcb9ab6f141c3a91a22637e9cac2aa5cea2cecad1ebf804c4bbabca3173af3ff36
9cf3e9ed05a33697223e42fd5af7317ce0f494962bc21b5faada2182b3aa1d649a65fb775cc8d3e1febf9723db3aae56fcbd5aa693532f6584c9698311e163e4
e7633a88305b718d9182456479655692c67352161bec7d8afb8349a856abd4bf742645b28afb7ecd69220319c701f2df2c7169392df388b4d6d06f002b1a87c3
f32a776aebc68bb12b9d33705fc6eb422dd0a75c7e9ff564c889caceaa99b8b231bbfa71d5efb6fe54c59879677df54ccec01cb8968f6ebf699adaa41035fc3b
02e643f17630f0d34a197208db6df6601fc04cc6a4948f56de4eecebb5d645b6eb9157d59baa1895a7875afc72457eb202b0056f3f646e02af34be9f883ddcfb
cbd087d03e5211d9ef41eb54ccb1d940c67352161bec7d8afb8349a856abd4bf742645b28afb7ecd69220319c701f2df2c7169392df388b4d6d06f002b1a87c3
58f9266cb134f077abb7f2caa4aa4f2acd9f9b0fe66d8ad1cd1bb2323a8e192b45b89dcd3615fe1b1b36a3ee095fe1e1b3c1916f7348699432a36a65253a0e8d
910133f7dbe25a145fd90fc27b070cebdca29065f7b4a684aada2182b3aa1d649a65fb775cc8d3e1ce9db601b95b802aee09b66f9ce7b23f76c03a7ef54c51e0
b24d3cb64d4208471a8c271bdfcbae0dcc0121b5e20e2076cd1bb2323a8e192b0f2d7932063561dd448cebe46db2fa977353cf24fe7f54a768c0e82178be6887
9797950f2e321834586d5e310627241711f623a56e7ec735eafabbf3c3c8023b7a4211dd260ad3487da40a76f61bb2c23b38e18b5b4b0343f7be19278649234d
c89502f13bcb4046bee5e65d9024c3b7eb87848776396383ed8b6b14fe4b60517715dd6974e390823a0077aef051d7fcfe11d8e5e8438b283a86b4d2a1fa0a2b
32cd76a2a36328a907afa5cbd98ae7152b02edf8361538e1f5159b173c1c30223ccb0e6cd377e6496bb627a799671f7bb5f1c17ee7956303c8a6880b9ec40ad1
b24d3cb64d4208471a8c271bdfcbae0d239bdbe658d21d00cd1bb2323a8e192b0f2d7932063561dda450c2655ff47a367353cf24fe7f54a768c0e82178be6887
b5255fb51b9eafa65be2acb2797d07e911f623a56e7ec735eafabbf3c3c8023b7a4211dd260ad3487da40a76f61bb2c23b38e18b5b4b0343f7be19278649234d
9cf3e9ed05a33697223e42fd5af7317ceb87848776396383cd1bb2323a8e192b0f2d7932063561ddaed2a490c582fc3f7353cf24fe7f54a768c0e82178be6887
70831f28ec1f9954c7541ec212b25801acf0c2d44cd2fbbb5725d40be78263bb240f0ef25946a36b445ef5ee593dfcf5afcaacab39bf532c12789ccf7b7cd319
8447e7e9aa3631b39a65fb775cc8d3e1f58d5b853908c736589af0812576e61b8318958aa75d45564651b4c215cbe2b1f448aa8b445158d32d602cb3c5dbd2bb
0b528dcb0451740f11f623a56e7ec735eafabbf3c3c8023b7a4211dd260ad3487da40a76f61bb2c23b38e18b5b4b03436b911d6af6bcb04e8c808178d5964ac3
c89502f13bcb4046bee5e65d9024c3b7f6a2b547dc976ba0cd1bb2323a8e192b23abd5fcf48f5f407353cf24fe7f54a71d9df1b085a17f74e836cc9bfcc705b6
80358f6b50e7593f43832d5e282e0c16f113edb7d8af5a52ca3915d10d0cd8df53e908a3e6b683cee98ee8ee774c93acfc0c2c7b924066d54005e002873b6105
8447e7e9aa3631b3cb5caf1c4bd6ad51dbe86c1f70c2d0d35c78620980dad895ec3bbd50ccba185dcefba7cc35a5f871470fa9a71ef2387b9cf6c3a968bdba61
b24d3cb64d4208471a8c271bdfcbae0dbc27f931268b4061cd1bb2323a8e192be78d4e9d77925370f7fb81c006d6ffd99a65fb775cc8d3e1a69e8a0d5cb15e77
075710a9d2c23d96644126c9831a96bdacf0c2d44cd2fbbb5725d40be78263bb240f0ef25946a36b445ef5ee593dfcf5afcaacab39bf532c12789ccf7b7cd319
9cf3e9ed05a33697223e42fd5af7317cf6a2b547dc976ba0cd1bb2323a8e192b0f2d7932063561dd42eb51207c6625c87353cf24fe7f54a768c0e82178be6887
59fed2d93cf3d4a6e847dda77d5f9443acf0c2d44cd2fbbb5725d40be78263bb240f0ef25946a36b445ef5ee593dfcf5afcaacab39bf532c12789ccf7b7cd319
8447e7e9aa3631b39a65fb775cc8d3e19d3fd576479bf3b4fcbd5aa693532f650f2d7932063561ddf63951052162623f3c858dbd7e6e5120e4e72beed32b1f99
5911b2e9db277617a5257eba54077ab5d6fbc9e11d26808bc67352161bec7d8afb8349a856abd4bf742645b28afb7ecd69220319c701f2dfcb7fdccfca961fc3
8767f397bff4c3a731bbfa71d5efb6fe825b843a3aa9ddcda4ee94ef1881b5b051af04d3c1444e4b36389de9d0d5a3abd4d25ba896602a2204d5b10a378cb592
58f9266cb134f077abb7f2caa4aa4f2ac12e63f53fc8b6c7cd1bb2323a8e192b0f2d7932063561dda450c2655ff47a367353cf24fe7f54a74636383e29fc7e14
209b39f48afc87e8e56e71941f4b430ea4ee94ef1881b5b051af04d3c1444e4b36389de9d0d5a3abd4d25ba896602a221489f10f26dca60f354b868d7e7e62eb
9cf3e9ed05a33697223e42fd5af7317cc12e63f53fc8b6c70c1da58add6cc82cd9f05174342143a341aedeaf8b979c60e0325fa4936b296762abae35df3c3a46
2b3adeaa6c68cb8fde4eecebb5d645b6eb9157d59baa1895a7875afc72457eb202b0056f3f646e028d92ac7c1641b6a9809bc717be451c33412ca97a07df297b
58f9266cb134f077abb7f2caa4aa4f2ab585b96681e0ca9b0c1da58add6cc82cd9f05174342143a341aedeaf8b979c606e14a491234a6a20aa1d594828edd636
9cf3e9ed05a33697223e42fd5af7317ccc0121b5e20e2076cd1bb2323a8e192b0f2d7932063561dd2121772ae9e51e027353cf24fe7f54a768c0e82178be6887
b26aed91f0a51a5f0fb68010fe61d9f6a1f835d0322deeb25c1c6b6568de674a52dca489d1f5766d8e13e84647d596ee4b2988935ee69f8ce195b7b035cf090c
8447e7e9aa3631b39a65fb775cc8d3e1febf9723db3aae56b96dd3aa47c3eefb75963efd3ee34e16b0320154828380204e26894942562954756dacbeca4bc899
d847b49f649edcb6aad0cae5ebf3019aacf0c2d44cd2fbbb5725d40be78263bb240f0ef25946a36b445ef5ee593dfcf5afcaacab39bf532c12789ccf7b7cd319
910133f7dbe25a145fd90fc27b070cebbc27f931268b4061cd1bb2323a8e192b0f2d7932063561dd65058136b012c28c449e9c9c16036a5cb04782e0c0925874
58f9266cb134f077abb7f2caa4aa4f2aeb87848776396383cd1bb2323a8e192b0f2d7932063561dd4ca4a80739f7d2f17353cf24fe7f54a768c0e82178be6887
548cd1b2a6347e1ef9161538b9d19b3c11f623a56e7ec735eafabbf3c3c8023b7a4211dd260ad3487da40a76f61bb2c23b38e18b5b4b0343f7be19278649234d
9cf3e9ed05a33697223e42fd5af7317cbc27f931268b4061cd1bb2323a8e192bf66d71b4fb98b57f2c955f1ead272732c82472b4fce2414218a62131fca4b473
a6da1ab3f334dd58a4ee94ef1881b5b051af04d3c1444e4b36389de9d0d5a3abd4d25ba896602a221489f10f26dca60f882712c6cfed3b96acdea4f0ae11a0f7
8447e7e9aa3631b39a65fb775cc8d3e1a77e717bfee791c5060778379dae4e1f0f2d7932063561ddbf3c1df6a9f9a98c3c858dbd7e6e5120e4e72beed32b1f99
5911b2e9db277617a5257eba54077ab5d6fbc9e11d26808bc67352161bec7d8afb8349a856abd4bf742645b28afb7ecd69220319c701f2dfcb7fdccfca961fc3
8767f397bff4c3a731bbfa71d5efb6fe825b843a3aa9ddcda4ee94ef1881b5b051af04d3c1444e4b36389de9d0d5a3abd4d25ba896602a2204d5b10a378cb592
9cf3e9ed05a33697c1d11fc042c75e15f33c8abaadaa48937715dd6974e39082707284efdd21189ae6c70c44b340c9b3c18cf6cf47be8560dc09dedd739516e8
8447e7e9aa3631b39a65fb775cc8d3e17de4942a6f42c5ac0a21967391440204ae3a12adc83cefebc82472b4fce24142561ba1e1ffea041039948b8788319ba9
c89502f13bcb4046bee5e65d9024c3b7239bdbe658d21d0062e2726efbe4af447715dd6974e390823a0077aef051d7fc899820656716f7683a86b4d2a1fa0a2b
32cd76a2a36328a907afa5cbd98ae7152b02edf8361538e1137ab372d83403f93ccb0e6cd377e6496bb627a799671f7bb5f1c17ee7956303c8a6880b9ec40ad1
58f9266cb134f077abb7f2caa4aa4f2ae0f494962bc21b5faada2182b3aa1d649a65fb775cc8d3e13a310921b65cdf5e8949a33b82981c9139948b8788319ba9
58f9266cb134f077abb7f2caa4aa4f2af6a2b547dc976ba0cd1bb2323a8e192b0f2d7932063561dd0f65f91f788237667353cf24fe7f54a768c0e82178be6887
b80c8294ed9a69e2e68b4c61d2d0e8e611f623a56e7ec735eafabbf3c3c8023b7a4211dd260ad3487da40a76f61bb2c23b38e18b5b4b0343f7be19278649234d
c89502f13bcb4046bee5e65d9024c3b7c12e63f53fc8b6c7cd1bb2323a8e192bb0b1e4f44e3d3c840befc2a7de296549adb4749c93569c74e2be99a78d0cf5fc
9a65fb775cc8d3e110e76313f0a18050c7541ec212b25801acf0c2d44cd2fbbb5725d40be78263bb240f0ef25946a36b445ef5ee593dfcf5938b9ee780b3c3fd
8447e7e9aa3631b3f552bf0b8b450542dbe86c1f70c2d0d35c78620980dad895ec3bbd50ccba185dcefba7cc35a5f871470fa9a71ef2387b9cf6c3a968bdba61
910133f7dbe25a145fd90fc27b070cebc12e63f53fc8b6c7cd1bb2323a8e192b0f2d7932063561ddbe10c4ae8c729b04c31873e152745360b04782e0c0925874
c89502f13bcb4046bee5e65d9024c3b7cd9f9b0fe66d8ad1cd1bb2323a8e192b0f2d7932063561dd4ca4a80739f7d2f17353cf24fe7f54a768c0e82178be6887
d5d78346f5413b0eda565ab2036d7247de4eecebb5d645b6eb9157d59baa1895a7875afc72457eb202b0056f3f646e028d92ac7c1641b6a9dd25d8f03cc47e66
32cd76a2a36328a907afa5cbd98ae7159f9328d85faf67cf98fe7ca5f62ac50c339daadb21f80b768aa0653500f538eb0fb68010fe61d9f67b671b6ed79304e5
910133f7dbe25a145fd90fc27b070cebeb87848776396383cd1bb2323a8e192b0f2d7932063561dd316b9844facd1d527353cf24fe7f54a768bdec828225f776
8f7433a4197efd05c67352161bec7d8afb8349a856abd4bf742645b28afb7ecd69220319c701f2df2c7169392df388b4b84fa09725c18a0be1311fe7f5a0ff3a
b24d3cb64d4208471a8c271bdfcbae0dc12e63f53fc8b6c762e2726efbe4af447715dd6974e390823a0077aef051d7fca5d2ec1cccda2f709d6bedf9d0034ac8
9cf3e9ed05a33697223e42fd5af7317c26b975abe1d7cf1faada2182b3aa1d649a65fb775cc8d3e1c06af4127b790af2060778379dae4e1f84c9698311e163e4
23f932313ff6968f4f08a50677148e3fc67352161bec7d8afb8349a856abd4bf742645b28afb7ecd69220319c701f2df2c7169392df388b4d6d06f002b1a87c3
8447e7e9aa3631b39a65fb775cc8d3e1becdfe70ff2f69c15c17cd7dd226ff4b0f2d7932063561dd2121772ae9e51e023c858dbd7e6e5120e4e72beed32b1f99
5911b2e9db277617a5257eba54077ab5d6fbc9e11d26808bc67352161bec7d8afb8349a856abd4bf742645b28afb7ecd69220319c701f2dfcb7fdccfca961fc3
8767f397bff4c3a731bbfa71d5efb6fe825b843a3aa9ddcda4ee94ef1881b5b051af04d3c1444e4b36389de9d0d5a3abd4d25ba896602a2204d5b10a378cb592
b24d3cb64d4208471a8c271bdfcbae0dbf230db17611f82fcd1bb2323a8e192b0f2d7932063561dd709301ac2bd8b26c7353cf24fe7f54a768c0e82178be6887
b80c8294ed9a69e24ef686ac41591aab11f623a56e7ec735eafabbf3c3c8023b7a4211dd260ad3487da40a76f61bb2c23b38e18b5b4b0343f7be19278649234d
910133f7dbe25a145fd90fc27b070cebcc0121b5e20e2076cd1bb2323a8e192b0f2d7932063561ddbe1ef8ba1dc7aff4b5d91990a44b8620b04782e0c0925874
a5f14a5e2321a15deb1f6a51e1085dfdcd9f9b0fe66d8ad1cd1bb2323a8e192b0f2d7932063561dd4ede3a256691b5587353cf24fe7f54a768c0e82178be6887
548cd1b2a6347e1ec7541ec212b25801acf0c2d44cd2fbbb5725d40be78263bb240f0ef25946a36b445ef5ee593dfcf5afcaacab39bf532c12789ccf7b7cd319
8447e7e9aa3631b39a65fb775cc8d3e156ba606a763b1bcdc82472b4fce24142dca78e8869e3955a6d96f8d978981290fde4619eeef6962ab04782e0c0925874
9cf3e9ed05a33697223e42fd5af7317c27920222bf9105dfaada2182b3aa1d649a65fb775cc8d3e1f58d5b853908c73607afa5cbd98ae71561a7c17c07323563
9395b90d0c56aff7dbe86c1f70c2d0d35c78620980dad895ec3bbd50ccba185dcefba7cc35a5f871470fa9a71ef2387b023dde8cc0650d615403206ed59de4f1
f32a776aebc68bb12b9d33705fc6eb422dd0a75c7e9ff564c889caceaa99b8b231bbfa71d5efb6fe54c59879677df54cb0cb4604b2cdfeb2699adaa41035fc3b
7ba5205a1e390ba54a197208db6df6601fc04cc6a4948f56de4eecebb5d645b6eb9157d59baa1895a7875afc72457eb202b0056f3f646e02af34be9f883ddcfb
cbd087d03e5211d9ef41eb54ccb1d940c67352161bec7d8afb8349a856abd4bf742645b28afb7ecd69220319c701f2df2c7169392df388b4d6d06f002b1a87c3
910133f7dbe25a145fd90fc27b070cebbf230db17611f82fcd1bb2323a8e192b0f2d7932063561dd1d970a96578c7c499f051b453d904f5576c03a7ef54c51e0
9cf3e9ed05a33697223e42fd5af7317cbf230db17611f82fcd1bb2323a8e192bb0b1e4f44e3d3c840befc2a7de2965497715dd6974e390829d87f73edfe878ba
7a98c01c6f217dbef113edb7d8af5a52ca3915d10d0cd8df53e908a3e6b683cee98ee8ee774c93acfc0c2c7b924066d5656ba606faa386d6d2cb01908e55af08
ce2630e8f72a0e97a7f7cf3f592f95ccb0320154828380208eab8894702469bcb9ab6f141c3a91a22637e9cac2aa5cea2cecad1ebf804c4bbabca3173af3ff36
58f9266cb134f077abb7f2caa4aa4f2adca29065f7b4a684aada2182b3aa1d649a65fb775cc8d3e1c2e42d71a994c17bae985450ac2e85ffb40d9b77dbefe211
8be3766a50c2c2f711f623a56e7ec735eafabbf3c3c8023b7a4211dd260ad3487da40a76f61bb2c23b38e18b5b4b03436b911d6af6bcb04e8c808178d5964ac3
9cf3e9ed05a33697223e42fd5af7317c6af56f2fcb564d81aada2182b3aa1d649a65fb775cc8d3e1f58d5b853908c73607afa5cbd98ae71561a7c17c07323563
b4443adbedb9fe9adbe86c1f70c2d0d35c78620980dad895ec3bbd50ccba185dcefba7cc35a5f871470fa9a71ef2387b023dde8cc0650d615403206ed59de4f1
f32a776aebc68bb12b9d33705fc6eb422dd0a75c7e9ff564c889caceaa99b8b231bbfa71d5efb6fe54c59879677df54cb0cb4604b2cdfeb216cf0ec002ef4d71
b02c968aee252821b10a9ac2a88feae3f113edb7d8af5a52ca3915d10d0cd8df53e908a3e6b683cee98ee8ee774c93acfc0c2c7b924066d54005e002873b6105
7c7bd86dc6d5ccb8cd230b35c772d3d8ef41eb54ccb1d940c67352161bec7d8afb8349a856abd4bf742645b28afb7ecd69220319c701f2dfcb7fdccfca961fc3
b24d3cb64d4208471a8c271bdfcbae0dcd9f9b0fe66d8ad1cd1bb2323a8e192b0f2d7932063561dd9619e6a358d4dcb67353cf24fe7f54a768c0e82178be6887
66e40a535a2408d29533a7f5935fd06211f623a56e7ec735eafabbf3c3c8023b7a4211dd260ad3487da40a76f61bb2c23b38e18b5b4b0343f7be19278649234d
c89502f13bcb4046bee5e65d9024c3b7bf230db17611f82fcd1bb2323a8e192b0f2d7932063561dd42eb51207c6625c87353cf24fe7f54a7d0b8a3a9a4939c8e
8447e7e9aa3631b3c251570456f8a43f610b9aed2e2f11110fb68010fe61d9f6a1f835d0322deeb25c1c6b6568de674a52dca489d1f5766d5b3298560b7a6444
c89502f13bcb4046bee5e65d9024c3b7bc27f931268b4061cd1bb2323a8e192be78d4e9d7792537042d51250774204c0adb4749c93569c74e2be99a78d0cf5fc
9a65fb775cc8d3e1ca73bf1256cbfc24aad0cae5ebf3019aacf0c2d44cd2fbbb5725d40be78263bb240f0ef25946a36b445ef5ee593dfcf5938b9ee780b3c3fd
8447e7e9aa3631b3f552bf0b8b450542dbe86c1f70c2d0d35c78620980dad895ec3bbd50ccba185dcefba7cc35a5f871470fa9a71ef2387b9cf6c3a968bdba61
910133f7dbe25a145fd90fc27b070cebb585b96681e0ca9bcd1bb2323a8e192b0f2d7932063561dd57ac913f4dcf6210c1500856ebdc227eb04782e0c0925874
9cf3e9ed05a33697223e42fd5af7317c239bdbe658d21d00cd1bb2323a8e192b0f2d7932063561ddbf3c1df6a9f9a98c7353cf24fe7f54a768c0e82178be6887
c21f0c1a8f99a465e847dda77d5f9443acf0c2d44cd2fbbb5725d40be78263bb240f0ef25946a36b445ef5ee593dfcf5afcaacab39bf532c12789ccf7b7cd319